03_OpenDSS_Circuits/Roxboro_Circuit_Opendss/Sections.DSS
// *******************************
// Defines Line names (Sections) for fused and regulators
New Line.6RR64__2483497 Bus1=25248743 Bus2=25792451
New Line.E0X32__2562517 Bus1=1710463 Bus2=1710464
New Line.E1668__2568994 Bus1=1585995 Bus2=1585996
New Line.EW604__2571108 Bus1=1599324 Bus2=1599325
New Line.10GG12_10J078_2581623 Bus1=26983094 Bus2=26983092
New Line.89Q18__104507897 Bus1=103462245 Bus2=103462240
New Line.E0P50_E0P51_2558661 Bus1=1708996 Bus2=1709012
New Line.E1186__2562275 Bus1=1708621 Bus2=1708622
New Line.EW269_EW273_2560716 Bus1=25794216 Bus2=25222557
New Line.EW629__2571112 Bus1=1599379 Bus2=1599380
New Line.EXF81__2586617 Bus1=25160510 Bus2=26829766
New Line.8E296__2480218 Bus1=25496447 Bus2=103120773
New Line.E0P03_E0P04_2558939 Bus1=1708761 Bus2=1708750
New Line.E3Y38_E3Y39_2560870 Bus1=26403387 Bus2=1713289
New Line.E3R76__2586691 Bus1=1586838 Bus2=26403393
New Line.EXF19_EXF47_2564817 Bus1=1729150 Bus2=1729230
New Line.6DE83_6GK07_2477599 Bus1=25719943 Bus2=26976543
New Line.E3R48__2569419 Bus1=1586742 Bus2=1586743
New Line.E3R61__2569520 Bus1=1586780 Bus2=1586782
New Line.E3Y15_E3Y20_2560881 Bus1=1713405 Bus2=1713370
New Line.EXF90__2588698 Bus1=26576684 Bus2=T5240B12_10000019
New Line.EZF00__2562828 Bus1=1709727 Bus2=1709728
New Line.EZZ26_EZZ28_2469662 Bus1=1709327 Bus2=1709334
New Line.EW624__2571678 Bus1=25116769 Bus2=1599302
New Line.E0Z59_E0Z60_2558902 Bus1=1709576 Bus2=26325337
New Line.E1038_E1039_2469128 Bus1=1713212 Bus2=1713168
New Line.E2N22__2584665 Bus1=1715712 Bus2=26173770
New Line.EZF89__2562665 Bus1=1710338 Bus2=1710339
New Line.E0V25_E0V30_2561810 Bus1=1715959 Bus2=1715950
New Line.E0V34__103666496 Bus1=1715940 Bus2=103197436
New Line.EXS22_EXS23_2560772 Bus1=1709624 Bus2=1709611
New Line.E0Z59__2587729 Bus1=1709576 Bus2=26517749
New Line.E0Z80_E0Z83_2558914 Bus1=1708991 Bus2=1708990
New Line.E2K33_E2K34_2564660 Bus1=1728805 Bus2=1728790
New Line.EZT36_EZT36_2473581 Bus1=1585968 Bus2=T5240B12_10000046
New Line.89Q22__2598032 Bus1=26981022 Bus2=25431312
New Line.E2J00__2569271 Bus1=1586961 Bus2=1586962
New Line.13LM88_13LG47_104791607 Bus1=26981034 Bus2=103574346
New Line.E0Z84_E0Z85_2558922 Bus1=1709176 Bus2=1709174
New Line.E3Y99__2563074 Bus1=1714914 Bus2=1714915
New Line.EZT20_EZT19_2473591 Bus1=1585972 Bus2=1585892
New Line.E0X16_E0X19_2560121 Bus1=1708832 Bus2=1708804
New Line.E1704_E1708_2567758 Bus1=1585819 Bus2=1585817
New Line.E8J46__2474798 Bus1=1586245 Bus2=1586246
New Line.EZZ79__2474652 Bus1=1586024 Bus2=1586025
New Line.E2M52_E2M56_2568567 Bus1=1587175 Bus2=1587029
New Line.E3W31_E3W33_2560751 Bus1=1715553 Bus2=1715622
New Line.E0Z19_E0Z18_2559284 Bus1=26400157 Bus2=1709168
New Line.E2J06__2569273 Bus1=1586986 Bus2=1586987
New Line.E2N19_E2N21_2560805 Bus1=1715705 Bus2=1715703
New Line.EW611_EW611_2569711 Bus1=1599321 Bus2=T5240B12_10000066
New Line.EZZ16_EZZ18_2469674 Bus1=26401863 Bus2=1709298
New Line.EZZ18_EZZ19_2469675 Bus1=1709298 Bus2=1709296
New Line.EZZ66_EZZ67_2473577 Bus1=1586248 Bus2=1586143
New Line.E1565_E1590_2568285 Bus1=26402844 Bus2=1586054
New Line.E3Y86_E3Y87_2560789 Bus1=1714017 Bus2=1714207
New Line.EW644_EW646_2565207 Bus1=1729120 Bus2=1729164
New Line.EXF67_127G33_2586352 Bus1=26376370 Bus2=103344436
New Line.E0X35__2562518 Bus1=1710402 Bus2=1710403
New Line.8LP26_8LP28_2576447 Bus1=26977934 Bus2=26977932
New Line.E1010__103039363 Bus1=103016080 Bus2=103016085
New Line.E1721_E1722_2567903 Bus1=1585846 Bus2=1585804
New Line.E2M88__2569318 Bus1=1587011 Bus2=1587012
New Line.EXF81_EXG09_2561845 Bus1=25160510 Bus2=1715831
New Line.EZB85_EZB89_2560115 Bus1=1709079 Bus2=1709077
New Line.E1030__2470386 Bus1=1713190 Bus2=1713191
New Line.E2J04__2569272 Bus1=1586963 Bus2=1586964
New Line.E0P04__2573311 Bus1=1708750 Bus2=25225779
New Line.E3W18__2562998 Bus1=1715558 Bus2=1715559
New Line.EW646_EW651_2565208 Bus1=1729164 Bus2=1729173
New Line.EXF46_EXF46_2569597 Bus1=1599386 Bus2=T5240B12_10000065
New Line.E0X48__2562377 Bus1=1709437 Bus2=1709438
New Line.E1641_10F196_2581477 Bus1=26402854 Bus2=25912164
New Line.E3Y42_E3Y43_2560873 Bus1=1713308 Bus2=1713307
New Line.EW267__2563014 Bus1=1709789 Bus2=1709790
New Line.EW687_EW689_2569625 Bus1=1599201 Bus2=1599472
New Line.EXS30_E8M99_2560770 Bus1=103344435 Bus2=26980926
New Line.EZF89_EZF91_2560098 Bus1=1710338 Bus2=1709674
New Line.EXF71_EXF73_2564827 Bus1=1729261 Bus2=1729259
New Line.EZZ88_EZZ90_2473366 Bus1=26976581 Bus2=26976554
New Line.EZZ93__2506981 Bus1=1586281 Bus2=26976576
New Line.E0X91_E0X92_2559298 Bus1=25872908 Bus2=1708784
New Line.E1026__2562548 Bus1=1709032 Bus2=1709033
New Line.EZF83__2562664 Bus1=1710360 Bus2=1710361
New Line.EZZ93__2506980 Bus1=26976575 Bus2=1586281
New Line.EZZ94__2506983 Bus1=26976578 Bus2=1586289
New Line.E1032__2470387 Bus1=1713185 Bus2=1713186
New Line.E1690_E1691_2567745 Bus1=26402861 Bus2=1585940
New Line.E2N91_E2N92_2568660 Bus1=1587238 Bus2=1587236
New Line.EXS97_EXS99_2560383 Bus1=1709670 Bus2=1709644
New Line.EZT29_EZT30_2473605 Bus1=1585874 Bus2=1585896
New Line.E0Z93_E0P29_2558918 Bus1=1708858 Bus2=1708853
New Line.E1624_18HQ10_106041197 Bus1=103654307 Bus2=103654304
New Line.E2K32_E2K33_2564659 Bus1=1728807 Bus2=1728805
New Line.E3Y93__2563070 Bus1=1714944 Bus2=1714945
New Line.EZZ52_EZZ53_2473775 Bus1=26401867 Bus2=1586343
New Line.E1730_E2P89_2573052 Bus1=1585792 Bus2=27143395
New Line.E2M63_11QA47_2585967 Bus1=26328210 Bus2=26979400
New Line.E3R24_E3R25_2568707 Bus1=26403406 Bus2=1586846
New Line.EXF73_EXF74_2564828 Bus1=1729259 Bus2=1729257
New Line.E1180_E1181_2568468 Bus1=1586207 Bus2=26367554
New Line.E1586_E1587_2568292 Bus1=1585771 Bus2=1585767
New Line.E2N59__2563093 Bus1=1713417 Bus2=1713418
New Line.EW266__2563013 Bus1=1709832 Bus2=1709833
New Line.EW697_EXF00_2569582 Bus1=1599391 Bus2=103172022
New Line.E0P08__2562277 Bus1=1708721 Bus2=25877542
New Line.E0P85__2561990 Bus1=1709507 Bus2=1709508
New Line.E1056__2470375 Bus1=1713148 Bus2=1713149
New Line.94M90__2598055 Bus1=25580956 Bus2=26981045
New Line.E1070__2470287 Bus1=1708695 Bus2=1708696
New Line.EXS78_EZF09_2560403 Bus1=1709630 Bus2=1709563
New Line.EZZ94__2506984 Bus1=1586289 Bus2=26976579
New Line.94M90__2598054 Bus1=26981044 Bus2=25580956
New Line.E0X49__2562378 Bus1=1709404 Bus2=1709405
New Line.E0Z18__2586623 Bus1=1709283 Bus2=26400157
New Line.E1590_E1592_2568273 Bus1=1586054 Bus2=1586051
New Line.E1662__2568992 Bus1=1586132 Bus2=1586133
New Line.EXS08_EXS10_2560721 Bus1=1709819 Bus2=1709816
New Line.E0P08_E0P09_2559290 Bus1=1708721 Bus2=25877539
New Line.E0Z28__2562261 Bus1=1709537 Bus2=1709538
New Line.E0Z52_E0Z53_2558888 Bus1=1713116 Bus2=1713114
New Line.E3Y55__2598001 Bus1=26980991 Bus2=1713248
New Line.EW264__2563012 Bus1=1709845 Bus2=1709846
New Line.E0P60__2470608 Bus1=1709188 Bus2=1709189
New Line.E0P86__2561991 Bus1=1713134 Bus2=1713135
New Line.E2N28__2583983 Bus1=1715676 Bus2=26115130
New Line.E2N73_E2N76_2560892 Bus1=1713364 Bus2=1713349
New Line.E3R80_E3R81_2568745 Bus1=1586923 Bus2=1586921
New Line.E2J99__2562992 Bus1=1715541 Bus2=1715542
New Line.E3Y97__2563073 Bus1=1714211 Bus2=1714212
New Line.122C47__2586410 Bus1=26325342 Bus2=26384682
New Line.EZZ59__2474729 Bus1=1586274 Bus2=1586275
New Line.E1033__2470388 Bus1=1713183 Bus2=1713184
New Line.E1506__2569486 Bus1=1586474 Bus2=1586475
New Line.E2N28__2583984 Bus1=1715676 Bus2=26115131
New Line.13LG43__2589951 Bus1=26682122 Bus2=26682123
New Line.E2N58__2563778 Bus1=1713372 Bus2=1713373
New Line.E3R44__2569418 Bus1=1586767 Bus2=1586768
New Line.E3W08__2563765 Bus1=1714675 Bus2=1714676
New Line.EZT60__2491099 Bus1=1708673 Bus2=26401855
New Line.E1086__2474634 Bus1=1586350 Bus2=1586351
New Line.E3W12__2562996 Bus1=1714966 Bus2=1714967
New Line.10TF49_12PP32_2587677 Bus1=25997526 Bus2=26495483
New Line.135997_135998_2588830 Bus1=26586563 Bus2=26586564
New Line.E1035__2470389 Bus1=1713181 Bus2=1713182
New Line.E3R92__2569357 Bus1=1586912 Bus2=1586913
New Line.E3Y95__2563072 Bus1=1714939 Bus2=1714940
New Line.E1602_E1603_2568276 Bus1=1586046 Bus2=1586043
New Line.E1666__2568993 Bus1=1586066 Bus2=1586067
New Line.E2N12_13LG41_2589945 Bus1=1713545 Bus2=26682115
New Line.E3W15__2562997 Bus1=1714964 Bus2=1714965
New Line.E3W35__2562987 Bus1=1715734 Bus2=1715735
New Line.EXF29_EXF30_2569595 Bus1=1599426 Bus2=1599418
New Line.E0X93_E0X96_2559300 Bus1=1708814 Bus2=1708813
New Line.118P04__2584251 Bus1=26126568 Bus2=26126569
New Line.18GJ26__105595325 Bus1=103635653 Bus2=103635654
New Line.E0X08_E0X11_2560129 Bus1=1708949 Bus2=1708924
New Line.EXH89_EXH90_2569802 Bus1=1599185 Bus2=1599105
New Line.E1082_E1083_2473347 Bus1=1586533 Bus2=1586528
New Line.E3Y94__2563071 Bus1=1714942 Bus2=1714943
New Line.EZF76_EZF78_2560088 Bus1=1710383 Bus2=1710369
New Line.6DE75_6DE76_2572428 Bus1=25078995 Bus2=25058943
New Line.7EW29__2479623 Bus1=25411737 Bus2=25411738
New Line.E0Z61_E0Z62_2559252 Bus1=1710733 Bus2=1710731
New Line.E1659_E1665_2567890 Bus1=1586071 Bus2=1586070
New Line.E1667__2568998 Bus1=1586011 Bus2=1586012
New Line.E2K12__2563593 Bus1=1713530 Bus2=1713531
New Line.E1016_E1020_2559835 Bus1=1709272 Bus2=1709354
New Line.E3R33__2569341 Bus1=1586892 Bus2=1586893
New Line.E3Y54__2563855 Bus1=1713250 Bus2=1713251
New Line.EXG80__2566669 Bus1=1729308 Bus2=1729309
New Line.122C46_14P237_2593396 Bus1=103395456 Bus2=26977925
New Line.EZT37_EZT38_2473596 Bus1=1585867 Bus2=1585866
New Line.E0P52_E0P53_2558668 Bus1=1708994 Bus2=1708993
New Line.E2K14_E2K17_2561829 Bus1=1713521 Bus2=1713519
New Line.E2M83__2569315 Bus1=1587060 Bus2=1587061
New Line.E0X93__2586620 Bus1=1708814 Bus2=26400154
New Line.E1618__2586664 Bus1=1585999 Bus2=26402853
New Line.E2J55__2598009 Bus1=26980999 Bus2=1715742
New Line.EW646_10GF24_2581592 Bus1=1729164 Bus2=25929740
New Line.EXG32_PPJ33_2561854 Bus1=1715774 Bus2=1715773
New Line.EZZ59_EZZ60_2473568 Bus1=1586274 Bus2=1586276
New Line.6RR65__2478372 Bus1=25248745 Bus2=25794278
New Line.E1128_E1130_2473356 Bus1=1586406 Bus2=1586396
New Line.E2J58__2562857 Bus1=1713560 Bus2=25631891
New Line.E2J59_E2J62_2560421 Bus1=26980998 Bus2=26980996
New Line.E3R31__2569340 Bus1=1586868 Bus2=1586869
New Line.E0P69__2470609 Bus1=1709198 Bus2=1709199
New Line.E0Z48__2562092 Bus1=1713098 Bus2=1713099
New Line.E3R36__2569342 Bus1=1586799 Bus2=1586800
New Line.E1120_E1121_2473224 Bus1=1586412 Bus2=1586410
New Line.E2J70__2598015 Bus1=26981005 Bus2=1713554
New Line.E2M80__2569314 Bus1=1587051 Bus2=1587052
New Line.E2N47_E2N50_2560822 Bus1=1715670 Bus2=1715531
New Line.E8Q14_E8Q21_2569626 Bus1=26983111 Bus2=26981048
New Line.E0Z76_FWC31_2558923 Bus1=1708927 Bus2=1708940
New Line.E1159_E1163_2568381 Bus1=1586598 Bus2=1586597
New Line.E1546_E1548_2568127 Bus1=1586199 Bus2=1586186
New Line.E2N21__2583982 Bus1=1715703 Bus2=26115129
New Line.E3R51_E3R53_2568876 Bus1=1586734 Bus2=1586732
...
